/*--------------------------------*- C++ -*----------------------------------*\
| =========                 |                                                 |
| \\      /  F ield         | OpenFOAM: The Open Source CFD Toolbox           |
|  \\    /   O peration     | Version:  v1906                                 |
|   \\  /    A nd           | Web:      www.OpenFOAM.com                      |
|    \\/     M anipulation  |                                                 |
\*---------------------------------------------------------------------------*/
FoamFile
{
    version     2.0;
    format      ascii;
    class       dictionary;
    location    "system";
    object      controlDict;
}
// * * * * * * * * * * * * * * * * * * * * * * * * * * * * * * * * * * * * * //

#include			"../constants"

application     	icoFoam;

startFrom       	startTime;

startTime       	0;

endTime         	$ENDTIME;

stopAt          	endTime;

deltaT          	0.01;

writeControl    	adjustableRunTime;

writeInterval   	1;

purgeWrite      	0;

writeFormat     	ascii;

writePrecision  	6;

writeCompression 	off;

timeFormat      	general;

timePrecision   	6;

runTimeModifiable 	true;

adjustTimeStep  	yes;

maxCo           	5;

functions
{
    forceCoeffs
    {
        type				forceCoeffs;
        functionObjectLibs 	("libforces.so");
        writeControl		writeTime;
        writeInterval		1;
        patches
        (
            walls
        );
        pName		p;
        UName   	U;
        rhoInf  	$RHO;
        rho     	rhoInf;
		log			true;
        CofR 		(0 0 0);
		liftDir		(0 1 0);
		dragDir 	(1 0 0);
		pitchAxis	(0 0 -1);
		magUInf		$U;
		lRef		$D;
		Aref		$A;
    }	
}

// ************************************************************************* //
